*****************************************************************************
* CDL NETLIST:
* CELL NAME: qspi_addr_fifo_mem
* IP code : S55NLLG2PH
*****************************************************************************


*****************************************************************************
* GLOBAL NET DECLARATIONS
*****************************************************************************


*****************************************************************************
* PIN CONTROL STATEMENT
*****************************************************************************


*****************************************************************************
* BIPOLAR DECLARATIONS
*****************************************************************************


*******************************************************************************
* SUB-CIRCUIT NETLIST:                                                        *
*                                                                             *
* Block: qspi_addr_fifo_mem_TIE_LOW_X1                                          *
*******************************************************************************
.SUBCKT qspi_addr_fifo_mem_TIE_LOW_X1 PULL0 VSS VDD
MP18 VDD NET2 NET2 VDD P12LL W=1.0U L=0.06U M=1
MN18 PULL0 NET2 VSS VSS N12LL W=1.5U L=0.06U M=1
.ENDS qspi_addr_fifo_mem_TIE_LOW_X1


*******************************************************************************
* SUB-CIRCUIT NETLIST:                                                        *
*                                                                             *
* Block: qspi_addr_fifo_mem_TIE_HIGH_X1                                        *
*******************************************************************************
.SUBCKT qspi_addr_fifo_mem_TIE_HIGH_X1 PULL1 VSS VDD
MP18 VDD NET2 PULL1 VDD P12LL W=2.0U L=0.06U M=1
MN18 NET2 NET2 VSS VSS N12LL W=1.0U L=0.06U M=1
.ENDS qspi_addr_fifo_mem_TIE_HIGH_X1


*******************************************************************************
* SUB-CIRCUIT NETLIST:                                                        *
*                                                                             *
* Block: qspi_addr_fifo_mem_TIE_LOW_X2                                          *
*******************************************************************************
.SUBCKT qspi_addr_fifo_mem_TIE_LOW_X2 PULL0 VSS VDD
MP18 VDD NET2 NET2 VDD P12LL W=0.4U L=0.06U M=1
MN18 PULL0 NET2 VSS VSS N12LL W=1U L=0.06U M=1
.ENDS qspi_addr_fifo_mem_TIE_LOW_X2


*******************************************************************************
* SUB-CIRCUIT NETLIST:                                                        *
*                                                                             *
* BLOCK: TP_DISCHARGECELLS                                                    *
*******************************************************************************
.SUBCKT qspi_addr_fifo_memTP_DISCHARGECELLS VDD VSS DUM_BL EMCLK S[5] S[4] S[3] S[2] S[1] S[0]

M0 3 EMCLK DUM_BL VSS RFNPGBHVT L=9E-08 W=1.2E-07 $X=575 $Y=-500 $D=24
M1 3 EMCLK DUM_BL VSS RFNPGBHVT L=9E-08 W=1.2E-07 $X=575 $Y=1010 $D=24
M2 DUM_BL EMCLK 3 VSS RFNPGBHVT L=9E-08 W=1.2E-07 $X=1795 $Y=-500 $D=24
M3 DUM_BL EMCLK 3 VSS RFNPGBHVT L=9E-08 W=1.2E-07 $X=1795 $Y=1010 $D=24
M4 5 EMCLK DUM_BL VSS RFNPGBHVT L=9E-08 W=1.2E-07 $X=3345 $Y=-500 $D=24
M5 5 EMCLK DUM_BL VSS RFNPGBHVT L=9E-08 W=1.2E-07 $X=3345 $Y=1010 $D=24
M6 DUM_BL EMCLK 5 VSS RFNPGBHVT L=9E-08 W=1.2E-07 $X=4565 $Y=-500 $D=24
M7 DUM_BL EMCLK 5 VSS RFNPGBHVT L=9E-08 W=1.2E-07 $X=4565 $Y=1010 $D=24
M8 7 EMCLK DUM_BL VSS RFNPGBHVT L=9E-08 W=1.2E-07 $X=5855 $Y=-500 $D=24
M9 7 EMCLK DUM_BL VSS RFNPGBHVT L=9E-08 W=1.2E-07 $X=5855 $Y=1010 $D=24
M10 DUM_BL EMCLK 7 VSS RFNPGBHVT L=9E-08 W=1.2E-07 $X=7075 $Y=-500 $D=24
M11 DUM_BL EMCLK 7 VSS RFNPGBHVT L=9E-08 W=1.2E-07 $X=7075 $Y=1010 $D=24
M12 9 EMCLK DUM_BL VSS RFNPGBHVT L=9E-08 W=1.2E-07 $X=8625 $Y=-500 $D=24
M13 9 EMCLK DUM_BL VSS RFNPGBHVT L=9E-08 W=1.2E-07 $X=8625 $Y=1010 $D=24
M14 DUM_BL EMCLK 9 VSS RFNPGBHVT L=9E-08 W=1.2E-07 $X=9845 $Y=-500 $D=24
M15 DUM_BL EMCLK 9 VSS RFNPGBHVT L=9E-08 W=1.2E-07 $X=9845 $Y=1010 $D=24
M16 9 EMCLK DUM_BL VSS RFNPGBHVT L=9E-08 W=1.2E-07 $X=11150 $Y=-500 $D=24
M17 9 EMCLK DUM_BL VSS RFNPGBHVT L=9E-08 W=1.2E-07 $X=11150 $Y=1010 $D=24
M18 DUM_BL EMCLK 9 VSS RFNPGBHVT L=9E-08 W=1.2E-07 $X=12370 $Y=-500 $D=24
M19 DUM_BL EMCLK 9 VSS RFNPGBHVT L=9E-08 W=1.2E-07 $X=12370 $Y=1010 $D=24
M20 11 EMCLK DUM_BL VSS RFNPGBHVT L=9E-08 W=1.2E-07 $X=13920 $Y=-500 $D=24
M21 11 EMCLK DUM_BL VSS RFNPGBHVT L=9E-08 W=1.2E-07 $X=13920 $Y=1010 $D=24
M22 DUM_BL EMCLK 11 VSS RFNPGBHVT L=9E-08 W=1.2E-07 $X=15140 $Y=-500 $D=24
M23 DUM_BL EMCLK 11 VSS RFNPGBHVT L=9E-08 W=1.2E-07 $X=15140 $Y=1010 $D=24
M24 11 EMCLK DUM_BL VSS RFNPGBHVT L=9E-08 W=1.2E-07 $X=16430 $Y=-500 $D=24
M25 11 EMCLK DUM_BL VSS RFNPGBHVT L=9E-08 W=1.2E-07 $X=16430 $Y=1010 $D=24
M26 DUM_BL EMCLK 11 VSS RFNPGBHVT L=9E-08 W=1.2E-07 $X=17650 $Y=-500 $D=24
M27 DUM_BL EMCLK 11 VSS RFNPGBHVT L=9E-08 W=1.2E-07 $X=17650 $Y=1010 $D=24
M28 13 EMCLK DUM_BL VSS RFNPGBHVT L=9E-08 W=1.2E-07 $X=19200 $Y=-500 $D=24
M29 13 EMCLK DUM_BL VSS RFNPGBHVT L=9E-08 W=1.2E-07 $X=19200 $Y=1010 $D=24
M30 DUM_BL EMCLK 13 VSS RFNPGBHVT L=9E-08 W=1.2E-07 $X=20420 $Y=-500 $D=24
M31 DUM_BL EMCLK 13 VSS RFNPGBHVT L=9E-08 W=1.2E-07 $X=20420 $Y=1010 $D=24
M32 13 EMCLK DUM_BL VSS RFNPGBHVT L=9E-08 W=1.2E-07 $X=21795 $Y=-500 $D=24
M33 13 EMCLK DUM_BL VSS RFNPGBHVT L=9E-08 W=1.2E-07 $X=21795 $Y=1010 $D=24
M34 DUM_BL EMCLK 13 VSS RFNPGBHVT L=9E-08 W=1.2E-07 $X=23015 $Y=-500 $D=24
M35 DUM_BL EMCLK 13 VSS RFNPGBHVT L=9E-08 W=1.2E-07 $X=23015 $Y=1010 $D=24
M36 16 EMCLK DUM_BL VSS RFNPGBHVT L=9E-08 W=1.2E-07 $X=24565 $Y=-500 $D=24
M37 16 EMCLK DUM_BL VSS RFNPGBHVT L=9E-08 W=1.2E-07 $X=24565 $Y=1010 $D=24
M38 DUM_BL EMCLK 16 VSS RFNPGBHVT L=9E-08 W=1.2E-07 $X=25785 $Y=-500 $D=24
M39 DUM_BL EMCLK 16 VSS RFNPGBHVT L=9E-08 W=1.2E-07 $X=25785 $Y=1010 $D=24
M40 16 EMCLK DUM_BL VSS RFNPGBHVT L=9E-08 W=1.2E-07 $X=27075 $Y=-500 $D=24
M41 16 EMCLK DUM_BL VSS RFNPGBHVT L=9E-08 W=1.2E-07 $X=27075 $Y=1010 $D=24
M42 DUM_BL EMCLK 16 VSS RFNPGBHVT L=9E-08 W=1.2E-07 $X=28295 $Y=-500 $D=24
M43 DUM_BL EMCLK 16 VSS RFNPGBHVT L=9E-08 W=1.2E-07 $X=28295 $Y=1010 $D=24
M44 VSS VDD 3 VSS RFNPDHVT L=7E-08 W=4.6E-07 $X=980 $Y=-840 $D=26
M45 VSS VDD 3 VSS RFNPDHVT L=7E-08 W=4.6E-07 $X=980 $Y=1010 $D=26
M46 3 VDD VSS VSS RFNPDHVT L=7E-08 W=4.6E-07 $X=1410 $Y=-840 $D=26
M47 3 VDD VSS VSS RFNPDHVT L=7E-08 W=4.6E-07 $X=1410 $Y=1010 $D=26
M48 VSS S[0] 5 VSS RFNPDHVT L=7E-08 W=4.6E-07 $X=3750 $Y=-840 $D=26
M49 VSS S[0] 5 VSS RFNPDHVT L=7E-08 W=4.6E-07 $X=3750 $Y=1010 $D=26
M50 5 S[0] VSS VSS RFNPDHVT L=7E-08 W=4.6E-07 $X=4180 $Y=-840 $D=26
M51 5 S[0] VSS VSS RFNPDHVT L=7E-08 W=4.6E-07 $X=4180 $Y=1010 $D=26
M52 VSS S[1] 7 VSS RFNPDHVT L=7E-08 W=4.6E-07 $X=6260 $Y=-840 $D=26
M53 VSS S[1] 7 VSS RFNPDHVT L=7E-08 W=4.6E-07 $X=6260 $Y=1010 $D=26
M54 7 S[1] VSS VSS RFNPDHVT L=7E-08 W=4.6E-07 $X=6690 $Y=-840 $D=26
M55 7 S[1] VSS VSS RFNPDHVT L=7E-08 W=4.6E-07 $X=6690 $Y=1010 $D=26
M56 VSS S[2] 9 VSS RFNPDHVT L=7E-08 W=4.6E-07 $X=9030 $Y=-840 $D=26
M57 VSS S[2] 9 VSS RFNPDHVT L=7E-08 W=4.6E-07 $X=9030 $Y=1010 $D=26
M58 9 S[2] VSS VSS RFNPDHVT L=7E-08 W=4.6E-07 $X=9460 $Y=-840 $D=26
M59 9 S[2] VSS VSS RFNPDHVT L=7E-08 W=4.6E-07 $X=9460 $Y=1010 $D=26
M60 VSS S[2] 9 VSS RFNPDHVT L=7E-08 W=4.6E-07 $X=11555 $Y=-840 $D=26
M61 VSS S[2] 9 VSS RFNPDHVT L=7E-08 W=4.6E-07 $X=11555 $Y=1010 $D=26
M62 9 S[2] VSS VSS RFNPDHVT L=7E-08 W=4.6E-07 $X=11985 $Y=-840 $D=26
M63 9 S[2] VSS VSS RFNPDHVT L=7E-08 W=4.6E-07 $X=11985 $Y=1010 $D=26
M64 VSS S[3] 11 VSS RFNPDHVT L=7E-08 W=4.6E-07 $X=14325 $Y=-840 $D=26
M65 VSS S[3] 11 VSS RFNPDHVT L=7E-08 W=4.6E-07 $X=14325 $Y=1010 $D=26
M66 11 S[3] VSS VSS RFNPDHVT L=7E-08 W=4.6E-07 $X=14755 $Y=-840 $D=26
M67 11 S[3] VSS VSS RFNPDHVT L=7E-08 W=4.6E-07 $X=14755 $Y=1010 $D=26
M68 VSS S[3] 11 VSS RFNPDHVT L=7E-08 W=4.6E-07 $X=16835 $Y=-840 $D=26
M69 VSS S[3] 11 VSS RFNPDHVT L=7E-08 W=4.6E-07 $X=16835 $Y=1010 $D=26
M70 11 S[3] VSS VSS RFNPDHVT L=7E-08 W=4.6E-07 $X=17265 $Y=-840 $D=26
M71 11 S[3] VSS VSS RFNPDHVT L=7E-08 W=4.6E-07 $X=17265 $Y=1010 $D=26
M72 VSS S[4] 13 VSS RFNPDHVT L=7E-08 W=4.6E-07 $X=19605 $Y=-840 $D=26
M73 VSS S[4] 13 VSS RFNPDHVT L=7E-08 W=4.6E-07 $X=19605 $Y=1010 $D=26
M74 13 S[4] VSS VSS RFNPDHVT L=7E-08 W=4.6E-07 $X=20035 $Y=-840 $D=26
M75 13 S[4] VSS VSS RFNPDHVT L=7E-08 W=4.6E-07 $X=20035 $Y=1010 $D=26
M76 VSS S[4] 13 VSS RFNPDHVT L=7E-08 W=4.6E-07 $X=22200 $Y=-840 $D=26
M77 VSS S[4] 13 VSS RFNPDHVT L=7E-08 W=4.6E-07 $X=22200 $Y=1010 $D=26
M78 13 S[4] VSS VSS RFNPDHVT L=7E-08 W=4.6E-07 $X=22630 $Y=-840 $D=26
M79 13 S[4] VSS VSS RFNPDHVT L=7E-08 W=4.6E-07 $X=22630 $Y=1010 $D=26
M80 VSS S[5] 16 VSS RFNPDHVT L=7E-08 W=4.6E-07 $X=24970 $Y=-840 $D=26
M81 VSS S[5] 16 VSS RFNPDHVT L=7E-08 W=4.6E-07 $X=24970 $Y=1010 $D=26
M82 16 S[5] VSS VSS RFNPDHVT L=7E-08 W=4.6E-07 $X=25400 $Y=-840 $D=26
M83 16 S[5] VSS VSS RFNPDHVT L=7E-08 W=4.6E-07 $X=25400 $Y=1010 $D=26
M84 VSS S[5] 16 VSS RFNPDHVT L=7E-08 W=4.6E-07 $X=27480 $Y=-840 $D=26
M85 VSS S[5] 16 VSS RFNPDHVT L=7E-08 W=4.6E-07 $X=27480 $Y=1010 $D=26
M86 16 S[5] VSS VSS RFNPDHVT L=7E-08 W=4.6E-07 $X=27910 $Y=-840 $D=26
M87 16 S[5] VSS VSS RFNPDHVT L=7E-08 W=4.6E-07 $X=27910 $Y=1010 $D=26
.ENDS
***************************************
*******************************************************************************
* SUB-CIRCUIT NETLIST:                                                        *
*                                                                             *
* BLOCK: PXA                                                                  *
*******************************************************************************
.SUBCKT qspi_addr_fifo_memPXA VDD VSS PX[3] PX[2] PX[1] PX[0] A[0] A[1] CLK CLKX RDE


M0 29 19 VSS VSS N12LL L=6E-08 W=7.5E-07 $X=115 $Y=3520 $D=0
M1 PX[0] 4 VSS VSS N12LL L=6E-08 W=7.5E-07 $X=115 $Y=10345 $D=0
M2 9 CLKX 4 VSS N12LL L=6E-08 W=8.35E-07 $X=265 $Y=7855 $D=0
M3 VSS PX[0] 4 VSS N12LL L=6E-07 W=1.2E-07 $X=365 $Y=9535 $D=0
M4 19 12 VSS VSS N12LL L=6E-08 W=7E-07 $X=395 $Y=1550 $D=0
M5 9 5 29 VSS N12LL L=6E-08 W=7.5E-07 $X=405 $Y=3520 $D=0
M6 VSS 4 PX[0] VSS N12LL L=6E-08 W=7.5E-07 $X=405 $Y=10345 $D=0
M7 4 CLKX 9 VSS N12LL L=6E-08 W=8.35E-07 $X=545 $Y=7855 $D=0
M8 VSS RDE 19 VSS N12LL L=6E-08 W=7E-07 $X=685 $Y=1550 $D=0
M9 30 5 9 VSS N12LL L=6E-08 W=7.5E-07 $X=695 $Y=3520 $D=0
M10 PX[0] 4 VSS VSS N12LL L=6E-08 W=7.5E-07 $X=695 $Y=10345 $D=0
M11 9 CLKX 4 VSS N12LL L=6E-08 W=8.35E-07 $X=825 $Y=7855 $D=0
M12 10 RDE VSS VSS N12LL L=6E-08 W=5E-07 $X=975 $Y=1665 $D=0
M13 VSS 19 30 VSS N12LL L=6E-08 W=7.5E-07 $X=985 $Y=3520 $D=0
M14 VSS 4 PX[0] VSS N12LL L=6E-08 W=7.5E-07 $X=985 $Y=10345 $D=0
M15 VSS 16 10 VSS N12LL L=6E-08 W=5E-07 $X=1265 $Y=1665 $D=0
M16 31 10 VSS VSS N12LL L=6E-08 W=7.5E-07 $X=1275 $Y=3520 $D=0
M17 PX[1] 13 VSS VSS N12LL L=6E-08 W=7.5E-07 $X=1275 $Y=10345 $D=0
M18 13 PX[1] VSS VSS N12LL L=6E-07 W=1.2E-07 $X=1355 $Y=9535 $D=0
M19 13 CLKX 14 VSS N12LL L=6E-08 W=8.35E-07 $X=1435 $Y=7855 $D=0
M20 14 5 31 VSS N12LL L=6E-08 W=7.5E-07 $X=1565 $Y=3520 $D=0
M21 VSS 13 PX[1] VSS N12LL L=6E-08 W=7.5E-07 $X=1565 $Y=10345 $D=0
M22 14 CLKX 13 VSS N12LL L=6E-08 W=8.35E-07 $X=1715 $Y=7855 $D=0
M23 32 5 14 VSS N12LL L=6E-08 W=7.5E-07 $X=1855 $Y=3520 $D=0
M24 PX[1] 13 VSS VSS N12LL L=6E-08 W=7.5E-07 $X=1855 $Y=10345 $D=0
M25 VSS 16 12 VSS N12LL L=6E-08 W=4E-07 $X=1885 $Y=1550 $D=0
M26 13 CLKX 14 VSS N12LL L=6E-08 W=8.35E-07 $X=1995 $Y=7855 $D=0
M27 VSS 10 32 VSS N12LL L=6E-08 W=7.5E-07 $X=2145 $Y=3520 $D=0
M28 VSS 13 PX[1] VSS N12LL L=6E-08 W=7.5E-07 $X=2145 $Y=10345 $D=0
M29 16 A[0] VSS VSS N12LL L=6E-08 W=4E-07 $X=2165 $Y=1550 $D=0
M30 33 10 VSS VSS N12LL L=6E-08 W=7.5E-07 $X=2435 $Y=3520 $D=0
M31 PX[3] 17 VSS VSS N12LL L=6E-08 W=7.5E-07 $X=2435 $Y=10345 $D=0
M32 21 CLKX 17 VSS N12LL L=6E-08 W=8.35E-07 $X=2585 $Y=7855 $D=0
M33 VSS PX[3] 17 VSS N12LL L=6E-07 W=1.2E-07 $X=2685 $Y=9535 $D=0
M34 21 18 33 VSS N12LL L=6E-08 W=7.5E-07 $X=2725 $Y=3520 $D=0
M35 VSS 17 PX[3] VSS N12LL L=6E-08 W=7.5E-07 $X=2725 $Y=10345 $D=0
M36 35 VDD VSS VSS N12LL L=3E-07 W=4E-07 $X=2795 $Y=1550 $D=0
M37 17 CLKX 21 VSS N12LL L=6E-08 W=8.35E-07 $X=2865 $Y=7855 $D=0
M38 34 18 21 VSS N12LL L=6E-08 W=7.5E-07 $X=3015 $Y=3520 $D=0
M39 PX[3] 17 VSS VSS N12LL L=6E-08 W=7.5E-07 $X=3015 $Y=10345 $D=0
M40 21 CLKX 17 VSS N12LL L=6E-08 W=8.35E-07 $X=3145 $Y=7855 $D=0
M41 23 A[1] 35 VSS N12LL L=6E-08 W=4E-07 $X=3265 $Y=1550 $D=0
M42 VSS 10 34 VSS N12LL L=6E-08 W=7.5E-07 $X=3305 $Y=3520 $D=0
M43 VSS 17 PX[3] VSS N12LL L=6E-08 W=7.5E-07 $X=3305 $Y=10345 $D=0
M44 36 19 VSS VSS N12LL L=6E-08 W=7.5E-07 $X=3595 $Y=3520 $D=0
M45 PX[2] 25 VSS VSS N12LL L=6E-08 W=7.5E-07 $X=3595 $Y=10345 $D=0
M46 25 PX[2] VSS VSS N12LL L=6E-07 W=1.2E-07 $X=3675 $Y=9535 $D=0
M47 25 CLKX 26 VSS N12LL L=6E-08 W=8.35E-07 $X=3755 $Y=7855 $D=0
M48 26 18 36 VSS N12LL L=6E-08 W=7.5E-07 $X=3885 $Y=3520 $D=0
M49 VSS 25 PX[2] VSS N12LL L=6E-08 W=7.5E-07 $X=3885 $Y=10345 $D=0
M50 VSS 23 18 VSS N12LL L=6E-08 W=7E-07 $X=3895 $Y=1550 $D=0
M51 26 CLKX 25 VSS N12LL L=6E-08 W=8.35E-07 $X=4035 $Y=7855 $D=0
M52 37 18 26 VSS N12LL L=6E-08 W=7.5E-07 $X=4175 $Y=3520 $D=0
M53 PX[2] 25 VSS VSS N12LL L=6E-08 W=7.5E-07 $X=4175 $Y=10345 $D=0
M54 5 18 VSS VSS N12LL L=6E-08 W=7E-07 $X=4185 $Y=1550 $D=0
M55 25 CLKX 26 VSS N12LL L=6E-08 W=8.35E-07 $X=4315 $Y=7855 $D=0
M56 VSS 19 37 VSS N12LL L=6E-08 W=7.5E-07 $X=4465 $Y=3520 $D=0
M57 VSS 25 PX[2] VSS N12LL L=6E-08 W=7.5E-07 $X=4465 $Y=10345 $D=0
M58 9 19 VDD VDD P12LL L=6E-08 W=7.5E-07 $X=115 $Y=4770 $D=1
M59 PX[0] 4 VDD VDD P12LL L=6E-08 W=1.75E-06 $X=115 $Y=11695 $D=1
M60 9 CLK 4 VDD P12LL L=6E-08 W=8.3E-07 $X=265 $Y=6525 $D=1
M61 38 12 19 VDD P12LL L=6E-08 W=1.4E-06 $X=395 $Y=-450 $D=1
M62 VDD 5 9 VDD P12LL L=6E-08 W=7.5E-07 $X=405 $Y=4770 $D=1
M63 VDD 4 PX[0] VDD P12LL L=6E-08 W=1.75E-06 $X=405 $Y=11695 $D=1
M64 4 CLK 9 VDD P12LL L=6E-08 W=8.3E-07 $X=545 $Y=6525 $D=1
M65 VDD PX[0] 4 VDD P12LL L=3E-07 W=1.2E-07 $X=615 $Y=14130 $D=1
M66 VDD RDE 38 VDD P12LL L=6E-08 W=1.4E-06 $X=685 $Y=-450 $D=1
M67 9 5 VDD VDD P12LL L=6E-08 W=7.5E-07 $X=695 $Y=4770 $D=1
M68 PX[0] 4 VDD VDD P12LL L=6E-08 W=1.75E-06 $X=695 $Y=11695 $D=1
M69 9 CLK 4 VDD P12LL L=6E-08 W=8.3E-07 $X=825 $Y=6525 $D=1
M70 39 RDE VDD VDD P12LL L=6E-08 W=7E-07 $X=975 $Y=250 $D=1
M71 VDD 19 9 VDD P12LL L=6E-08 W=7.5E-07 $X=985 $Y=4770 $D=1
M72 VDD 4 PX[0] VDD P12LL L=6E-08 W=1.75E-06 $X=985 $Y=11695 $D=1
M73 10 16 39 VDD P12LL L=6E-08 W=7E-07 $X=1265 $Y=250 $D=1
M74 14 10 VDD VDD P12LL L=6E-08 W=7.5E-07 $X=1275 $Y=4770 $D=1
M75 PX[1] 13 VDD VDD P12LL L=6E-08 W=1.75E-06 $X=1275 $Y=11695 $D=1
M76 13 PX[1] VDD VDD P12LL L=3E-07 W=1.2E-07 $X=1405 $Y=14130 $D=1
M77 13 CLK 14 VDD P12LL L=6E-08 W=8.3E-07 $X=1435 $Y=6525 $D=1
M78 VDD 5 14 VDD P12LL L=6E-08 W=7.5E-07 $X=1565 $Y=4770 $D=1
M79 VDD 13 PX[1] VDD P12LL L=6E-08 W=1.75E-06 $X=1565 $Y=11695 $D=1
M80 14 CLK 13 VDD P12LL L=6E-08 W=8.3E-07 $X=1715 $Y=6525 $D=1
M81 14 5 VDD VDD P12LL L=6E-08 W=7.5E-07 $X=1855 $Y=4770 $D=1
M82 PX[1] 13 VDD VDD P12LL L=6E-08 W=1.75E-06 $X=1855 $Y=11695 $D=1
M83 VDD 16 12 VDD P12LL L=6E-08 W=4E-07 $X=1885 $Y=400 $D=1
M84 13 CLK 14 VDD P12LL L=6E-08 W=8.3E-07 $X=1995 $Y=6525 $D=1
M85 VDD 10 14 VDD P12LL L=6E-08 W=7.5E-07 $X=2145 $Y=4770 $D=1
M86 VDD 13 PX[1] VDD P12LL L=6E-08 W=1.75E-06 $X=2145 $Y=11695 $D=1
M87 16 A[0] VDD VDD P12LL L=6E-08 W=4E-07 $X=2165 $Y=400 $D=1
M88 21 10 VDD VDD P12LL L=6E-08 W=7.5E-07 $X=2435 $Y=4770 $D=1
M89 PX[3] 17 VDD VDD P12LL L=6E-08 W=1.75E-06 $X=2435 $Y=11695 $D=1
M90 21 CLK 17 VDD P12LL L=6E-08 W=8.3E-07 $X=2585 $Y=6525 $D=1
M91 VDD 18 21 VDD P12LL L=6E-08 W=7.5E-07 $X=2725 $Y=4770 $D=1
M92 VDD 17 PX[3] VDD P12LL L=6E-08 W=1.75E-06 $X=2725 $Y=11695 $D=1
M93 17 CLK 21 VDD P12LL L=6E-08 W=8.3E-07 $X=2865 $Y=6525 $D=1
M94 VDD PX[3] 17 VDD P12LL L=3E-07 W=1.2E-07 $X=2935 $Y=14130 $D=1
M95 41 VSS VDD VDD P12LL L=1E-07 W=4E-07 $X=2995 $Y=485 $D=1
M96 21 18 VDD VDD P12LL L=6E-08 W=7.5E-07 $X=3015 $Y=4770 $D=1
M97 PX[3] 17 VDD VDD P12LL L=6E-08 W=1.75E-06 $X=3015 $Y=11695 $D=1
M98 21 CLK 17 VDD P12LL L=6E-08 W=8.3E-07 $X=3145 $Y=6525 $D=1
M99 23 A[1] 41 VDD P12LL L=6E-08 W=4E-07 $X=3265 $Y=485 $D=1
M100 VDD 10 21 VDD P12LL L=6E-08 W=7.5E-07 $X=3305 $Y=4770 $D=1
M101 VDD 17 PX[3] VDD P12LL L=6E-08 W=1.75E-06 $X=3305 $Y=11695 $D=1
M102 26 19 VDD VDD P12LL L=6E-08 W=7.5E-07 $X=3595 $Y=4770 $D=1
M103 PX[2] 25 VDD VDD P12LL L=6E-08 W=1.75E-06 $X=3595 $Y=11695 $D=1
M104 25 PX[2] VDD VDD P12LL L=3E-07 W=1.2E-07 $X=3725 $Y=14130 $D=1
M105 25 CLK 26 VDD P12LL L=6E-08 W=8.3E-07 $X=3755 $Y=6525 $D=1
M106 VDD 18 26 VDD P12LL L=6E-08 W=7.5E-07 $X=3885 $Y=4770 $D=1
M107 VDD 25 PX[2] VDD P12LL L=6E-08 W=1.75E-06 $X=3885 $Y=11695 $D=1
M108 VDD 23 18 VDD P12LL L=6E-08 W=1.4E-06 $X=3895 $Y=-450 $D=1
M109 26 CLK 25 VDD P12LL L=6E-08 W=8.3E-07 $X=4035 $Y=6525 $D=1
M110 26 18 VDD VDD P12LL L=6E-08 W=7.5E-07 $X=4175 $Y=4770 $D=1
M111 PX[2] 25 VDD VDD P12LL L=6E-08 W=1.75E-06 $X=4175 $Y=11695 $D=1
M112 5 18 VDD VDD P12LL L=6E-08 W=1.4E-06 $X=4185 $Y=-450 $D=1
M113 25 CLK 26 VDD P12LL L=6E-08 W=8.3E-07 $X=4315 $Y=6525 $D=1
M114 VDD 19 26 VDD P12LL L=6E-08 W=7.5E-07 $X=4465 $Y=4770 $D=1
M115 VDD 25 PX[2] VDD P12LL L=6E-08 W=1.75E-06 $X=4465 $Y=11695 $D=1
.ENDS
***************************************
*******************************************************************************
* SUB-CIRCUIT NETLIST:                                                        *
*                                                                             *
* BLOCK: FPREDEC                                                              *
*******************************************************************************
.SUBCKT qspi_addr_fifo_memFPREDEC VDD VSS FCKX[7] FCKX[6] FCKX[5] FCKX[4] FCKX[3] FCKX[2] FCKX[1] FCKX[0]
+A[0] A[1] A[2] CLK CLKX WLCKX


M0 6 4 VSS VSS N12LL L=6E-08 W=4E-07 $X=115 $Y=10310 $D=0
M1 FCKX[3] 6 WLCKX VSS N12LL L=6E-08 W=1.25E-06 $X=115 $Y=14130 $D=0
M2 23 45 VSS VSS N12LL L=6E-08 W=5E-07 $X=255 $Y=140 $D=0
M3 7 CLKX 4 VSS N12LL L=6E-08 W=5E-07 $X=275 $Y=6170 $D=0
M4 VSS 6 4 VSS N12LL L=6E-07 W=1.2E-07 $X=365 $Y=11505 $D=0
M5 VSS 4 6 VSS N12LL L=6E-08 W=4E-07 $X=405 $Y=10310 $D=0
M6 WLCKX 6 FCKX[3] VSS N12LL L=6E-08 W=1.25E-06 $X=405 $Y=14130 $D=0
M7 57 5 7 VSS N12LL L=6E-08 W=1E-06 $X=505 $Y=4625 $D=0
M8 VSS 45 23 VSS N12LL L=6E-08 W=5E-07 $X=545 $Y=140 $D=0
M9 4 CLKX 7 VSS N12LL L=6E-08 W=5E-07 $X=545 $Y=6170 $D=0
M10 6 4 VSS VSS N12LL L=6E-08 W=4E-07 $X=695 $Y=10310 $D=0
M11 FCKX[3] 6 WLCKX VSS N12LL L=6E-08 W=1.25E-06 $X=695 $Y=14130 $D=0
M12 58 10 57 VSS N12LL L=6E-08 W=1E-06 $X=745 $Y=4625 $D=0
M13 7 CLKX 4 VSS N12LL L=6E-08 W=5E-07 $X=825 $Y=6170 $D=0
M14 45 11 VSS VSS N12LL L=6E-08 W=5E-07 $X=835 $Y=140 $D=0
M15 VSS 23 58 VSS N12LL L=6E-08 W=1E-06 $X=985 $Y=4625 $D=0
M16 VSS 4 6 VSS N12LL L=6E-08 W=4E-07 $X=985 $Y=10310 $D=0
M17 WLCKX 6 FCKX[3] VSS N12LL L=6E-08 W=1.25E-06 $X=985 $Y=14130 $D=0
M18 VSS 11 45 VSS N12LL L=6E-08 W=5E-07 $X=1125 $Y=140 $D=0
M19 59 23 VSS VSS N12LL L=6E-08 W=1E-06 $X=1275 $Y=4625 $D=0
M20 12 14 VSS VSS N12LL L=6E-08 W=4E-07 $X=1275 $Y=10310 $D=0
M21 FCKX[2] 12 WLCKX VSS N12LL L=6E-08 W=1.25E-06 $X=1275 $Y=14130 $D=0
M22 14 12 VSS VSS N12LL L=6E-07 W=1.2E-07 $X=1355 $Y=11505 $D=0
M23 14 CLKX 13 VSS N12LL L=6E-08 W=5E-07 $X=1435 $Y=6170 $D=0
M24 60 10 59 VSS N12LL L=6E-08 W=1E-06 $X=1515 $Y=4625 $D=0
M25 VSS 14 12 VSS N12LL L=6E-08 W=4E-07 $X=1565 $Y=10310 $D=0
M26 WLCKX 12 FCKX[2] VSS N12LL L=6E-08 W=1.25E-06 $X=1565 $Y=14130 $D=0
M27 13 CLKX 14 VSS N12LL L=6E-08 W=5E-07 $X=1715 $Y=6170 $D=0
M28 61 A[2] 11 VSS N12LL L=6E-08 W=4E-07 $X=1755 $Y=160 $D=0
M29 13 18 60 VSS N12LL L=6E-08 W=1E-06 $X=1755 $Y=4625 $D=0
M30 12 14 VSS VSS N12LL L=6E-08 W=4E-07 $X=1855 $Y=10310 $D=0
M31 FCKX[2] 12 WLCKX VSS N12LL L=6E-08 W=1.25E-06 $X=1855 $Y=14130 $D=0
M32 14 CLKX 13 VSS N12LL L=6E-08 W=5E-07 $X=1985 $Y=6170 $D=0
M33 VSS VDD 61 VSS N12LL L=3E-07 W=4E-07 $X=2015 $Y=160 $D=0
M34 VSS 14 12 VSS N12LL L=6E-08 W=4E-07 $X=2145 $Y=10310 $D=0
M35 WLCKX 12 FCKX[2] VSS N12LL L=6E-08 W=1.25E-06 $X=2145 $Y=14130 $D=0
M36 21 19 VSS VSS N12LL L=6E-08 W=4E-07 $X=2435 $Y=10310 $D=0
M37 FCKX[0] 21 WLCKX VSS N12LL L=6E-08 W=1.25E-06 $X=2435 $Y=14130 $D=0
M38 22 CLKX 19 VSS N12LL L=6E-08 W=5E-07 $X=2595 $Y=6170 $D=0
M39 VSS 21 19 VSS N12LL L=6E-07 W=1.2E-07 $X=2685 $Y=11505 $D=0
M40 VSS 19 21 VSS N12LL L=6E-08 W=4E-07 $X=2725 $Y=10310 $D=0
M41 WLCKX 21 FCKX[0] VSS N12LL L=6E-08 W=1.25E-06 $X=2725 $Y=14130 $D=0
M42 62 18 22 VSS N12LL L=6E-08 W=1E-06 $X=2825 $Y=4625 $D=0
M43 19 CLKX 22 VSS N12LL L=6E-08 W=5E-07 $X=2865 $Y=6170 $D=0
M44 21 19 VSS VSS N12LL L=6E-08 W=4E-07 $X=3015 $Y=10310 $D=0
M45 FCKX[0] 21 WLCKX VSS N12LL L=6E-08 W=1.25E-06 $X=3015 $Y=14130 $D=0
M46 63 53 62 VSS N12LL L=6E-08 W=1E-06 $X=3065 $Y=4625 $D=0
M47 22 CLKX 19 VSS N12LL L=6E-08 W=5E-07 $X=3145 $Y=6170 $D=0
M48 VSS 23 63 VSS N12LL L=6E-08 W=1E-06 $X=3305 $Y=4625 $D=0
M49 VSS 19 21 VSS N12LL L=6E-08 W=4E-07 $X=3305 $Y=10310 $D=0
M50 WLCKX 21 FCKX[0] VSS N12LL L=6E-08 W=1.25E-06 $X=3305 $Y=14130 $D=0
M51 64 23 VSS VSS N12LL L=6E-08 W=1E-06 $X=3595 $Y=4625 $D=0
M52 26 27 VSS VSS N12LL L=6E-08 W=4E-07 $X=3595 $Y=10310 $D=0
M53 FCKX[1] 26 WLCKX VSS N12LL L=6E-08 W=1.25E-06 $X=3595 $Y=14130 $D=0
M54 27 26 VSS VSS N12LL L=6E-07 W=1.2E-07 $X=3675 $Y=11505 $D=0
M55 27 CLKX 28 VSS N12LL L=6E-08 W=5E-07 $X=3755 $Y=6170 $D=0
M56 65 53 64 VSS N12LL L=6E-08 W=1E-06 $X=3835 $Y=4625 $D=0
M57 VSS 27 26 VSS N12LL L=6E-08 W=4E-07 $X=3885 $Y=10310 $D=0
M58 WLCKX 26 FCKX[1] VSS N12LL L=6E-08 W=1.25E-06 $X=3885 $Y=14130 $D=0
M59 28 CLKX 27 VSS N12LL L=6E-08 W=5E-07 $X=4035 $Y=6170 $D=0
M60 66 VDD VSS VSS N12LL L=3E-07 W=4E-07 $X=4065 $Y=160 $D=0
M61 28 5 65 VSS N12LL L=6E-08 W=1E-06 $X=4075 $Y=4625 $D=0
M62 26 27 VSS VSS N12LL L=6E-08 W=4E-07 $X=4175 $Y=10310 $D=0
M63 FCKX[1] 26 WLCKX VSS N12LL L=6E-08 W=1.25E-06 $X=4175 $Y=14130 $D=0
M64 27 CLKX 28 VSS N12LL L=6E-08 W=5E-07 $X=4305 $Y=6170 $D=0
M65 VSS 27 26 VSS N12LL L=6E-08 W=4E-07 $X=4465 $Y=10310 $D=0
M66 WLCKX 26 FCKX[1] VSS N12LL L=6E-08 W=1.25E-06 $X=4465 $Y=14130 $D=0
M67 32 A[0] 66 VSS N12LL L=6E-08 W=4E-07 $X=4565 $Y=160 $D=0
M68 33 31 VSS VSS N12LL L=6E-08 W=4E-07 $X=4755 $Y=10310 $D=0
M69 FCKX[7] 33 WLCKX VSS N12LL L=6E-08 W=1.25E-06 $X=4755 $Y=14130 $D=0
M70 34 CLKX 31 VSS N12LL L=6E-08 W=5E-07 $X=4915 $Y=6170 $D=0
M71 VSS 33 31 VSS N12LL L=6E-07 W=1.2E-07 $X=5005 $Y=11505 $D=0
M72 VSS 31 33 VSS N12LL L=6E-08 W=4E-07 $X=5045 $Y=10310 $D=0
M73 WLCKX 33 FCKX[7] VSS N12LL L=6E-08 W=1.25E-06 $X=5045 $Y=14130 $D=0
M74 67 5 34 VSS N12LL L=6E-08 W=1E-06 $X=5145 $Y=4625 $D=0
M75 31 CLKX 34 VSS N12LL L=6E-08 W=5E-07 $X=5185 $Y=6170 $D=0
M76 5 32 VSS VSS N12LL L=6E-08 W=5E-07 $X=5195 $Y=140 $D=0
M77 33 31 VSS VSS N12LL L=6E-08 W=4E-07 $X=5335 $Y=10310 $D=0
M78 FCKX[7] 33 WLCKX VSS N12LL L=6E-08 W=1.25E-06 $X=5335 $Y=14130 $D=0
M79 68 10 67 VSS N12LL L=6E-08 W=1E-06 $X=5385 $Y=4625 $D=0
M80 34 CLKX 31 VSS N12LL L=6E-08 W=5E-07 $X=5465 $Y=6170 $D=0
M81 VSS 32 5 VSS N12LL L=6E-08 W=5E-07 $X=5485 $Y=140 $D=0
M82 VSS 45 68 VSS N12LL L=6E-08 W=1E-06 $X=5625 $Y=4625 $D=0
M83 VSS 31 33 VSS N12LL L=6E-08 W=4E-07 $X=5625 $Y=10310 $D=0
M84 WLCKX 33 FCKX[7] VSS N12LL L=6E-08 W=1.25E-06 $X=5625 $Y=14130 $D=0
M85 18 5 VSS VSS N12LL L=6E-08 W=5E-07 $X=5775 $Y=140 $D=0
M86 69 45 VSS VSS N12LL L=6E-08 W=1E-06 $X=5915 $Y=4625 $D=0
M87 36 38 VSS VSS N12LL L=6E-08 W=4E-07 $X=5915 $Y=10310 $D=0
M88 FCKX[6] 36 WLCKX VSS N12LL L=6E-08 W=1.25E-06 $X=5915 $Y=14130 $D=0
M89 38 36 VSS VSS N12LL L=6E-07 W=1.2E-07 $X=5995 $Y=11505 $D=0
M90 VSS 5 18 VSS N12LL L=6E-08 W=5E-07 $X=6065 $Y=140 $D=0
M91 38 CLKX 37 VSS N12LL L=6E-08 W=5E-07 $X=6075 $Y=6170 $D=0
M92 70 10 69 VSS N12LL L=6E-08 W=1E-06 $X=6155 $Y=4625 $D=0
M93 VSS 38 36 VSS N12LL L=6E-08 W=4E-07 $X=6205 $Y=10310 $D=0
M94 WLCKX 36 FCKX[6] VSS N12LL L=6E-08 W=1.25E-06 $X=6205 $Y=14130 $D=0
M95 37 CLKX 38 VSS N12LL L=6E-08 W=5E-07 $X=6355 $Y=6170 $D=0
M96 37 18 70 VSS N12LL L=6E-08 W=1E-06 $X=6395 $Y=4625 $D=0
M97 36 38 VSS VSS N12LL L=6E-08 W=4E-07 $X=6495 $Y=10310 $D=0
M98 FCKX[6] 36 WLCKX VSS N12LL L=6E-08 W=1.25E-06 $X=6495 $Y=14130 $D=0
M99 38 CLKX 37 VSS N12LL L=6E-08 W=5E-07 $X=6625 $Y=6170 $D=0
M100 VSS 38 36 VSS N12LL L=6E-08 W=4E-07 $X=6785 $Y=10310 $D=0
M101 WLCKX 36 FCKX[6] VSS N12LL L=6E-08 W=1.25E-06 $X=6785 $Y=14130 $D=0
M102 43 42 VSS VSS N12LL L=6E-08 W=4E-07 $X=7075 $Y=10310 $D=0
M103 FCKX[4] 43 WLCKX VSS N12LL L=6E-08 W=1.25E-06 $X=7075 $Y=14130 $D=0
M104 71 VDD VSS VSS N12LL L=3E-07 W=4E-07 $X=7105 $Y=160 $D=0
M105 44 CLKX 42 VSS N12LL L=6E-08 W=5E-07 $X=7235 $Y=6170 $D=0
M106 VSS 43 42 VSS N12LL L=6E-07 W=1.2E-07 $X=7325 $Y=11505 $D=0
M107 VSS 42 43 VSS N12LL L=6E-08 W=4E-07 $X=7365 $Y=10310 $D=0
M108 WLCKX 43 FCKX[4] VSS N12LL L=6E-08 W=1.25E-06 $X=7365 $Y=14130 $D=0
M109 72 18 44 VSS N12LL L=6E-08 W=1E-06 $X=7465 $Y=4625 $D=0
M110 42 CLKX 44 VSS N12LL L=6E-08 W=5E-07 $X=7505 $Y=6170 $D=0
M111 47 A[1] 71 VSS N12LL L=6E-08 W=4E-07 $X=7605 $Y=160 $D=0
M112 43 42 VSS VSS N12LL L=6E-08 W=4E-07 $X=7655 $Y=10310 $D=0
M113 FCKX[4] 43 WLCKX VSS N12LL L=6E-08 W=1.25E-06 $X=7655 $Y=14130 $D=0
M114 73 53 72 VSS N12LL L=6E-08 W=1E-06 $X=7705 $Y=4625 $D=0
M115 44 CLKX 42 VSS N12LL L=6E-08 W=5E-07 $X=7785 $Y=6170 $D=0
M116 VSS 45 73 VSS N12LL L=6E-08 W=1E-06 $X=7945 $Y=4625 $D=0
M117 VSS 42 43 VSS N12LL L=6E-08 W=4E-07 $X=7945 $Y=10310 $D=0
M118 WLCKX 43 FCKX[4] VSS N12LL L=6E-08 W=1.25E-06 $X=7945 $Y=14130 $D=0
M119 10 47 VSS VSS N12LL L=6E-08 W=5E-07 $X=8235 $Y=140 $D=0
M120 74 45 VSS VSS N12LL L=6E-08 W=1E-06 $X=8235 $Y=4625 $D=0
M121 48 49 VSS VSS N12LL L=6E-08 W=4E-07 $X=8235 $Y=10310 $D=0
M122 FCKX[5] 48 WLCKX VSS N12LL L=6E-08 W=1.25E-06 $X=8235 $Y=14130 $D=0
M123 49 48 VSS VSS N12LL L=6E-07 W=1.2E-07 $X=8315 $Y=11505 $D=0
M124 49 CLKX 50 VSS N12LL L=6E-08 W=5E-07 $X=8395 $Y=6170 $D=0
M125 75 53 74 VSS N12LL L=6E-08 W=1E-06 $X=8475 $Y=4625 $D=0
M126 VSS 47 10 VSS N12LL L=6E-08 W=5E-07 $X=8525 $Y=140 $D=0
M127 VSS 49 48 VSS N12LL L=6E-08 W=4E-07 $X=8525 $Y=10310 $D=0
M128 WLCKX 48 FCKX[5] VSS N12LL L=6E-08 W=1.25E-06 $X=8525 $Y=14130 $D=0
M129 50 CLKX 49 VSS N12LL L=6E-08 W=5E-07 $X=8675 $Y=6170 $D=0
M130 50 5 75 VSS N12LL L=6E-08 W=1E-06 $X=8715 $Y=4625 $D=0
M131 53 10 VSS VSS N12LL L=6E-08 W=5E-07 $X=8815 $Y=140 $D=0
M132 48 49 VSS VSS N12LL L=6E-08 W=4E-07 $X=8815 $Y=10310 $D=0
M133 FCKX[5] 48 WLCKX VSS N12LL L=6E-08 W=1.25E-06 $X=8815 $Y=14130 $D=0
M134 49 CLKX 50 VSS N12LL L=6E-08 W=5E-07 $X=8945 $Y=6170 $D=0
M135 VSS 10 53 VSS N12LL L=6E-08 W=5E-07 $X=9105 $Y=140 $D=0
M136 VSS 49 48 VSS N12LL L=6E-08 W=4E-07 $X=9105 $Y=10310 $D=0
M137 WLCKX 48 FCKX[5] VSS N12LL L=6E-08 W=1.25E-06 $X=9105 $Y=14130 $D=0
M138 6 4 VDD VDD P12LL L=6E-08 W=4E-07 $X=115 $Y=9125 $D=1
M139 FCKX[3] 4 WLCKX VDD P12LL L=6E-08 W=1.25E-06 $X=115 $Y=12320 $D=1
M140 FCKX[3] 6 VDD VDD P12LL L=6E-08 W=1.25E-06 $X=115 $Y=15880 $D=1
M141 23 45 VDD VDD P12LL L=6E-08 W=1E-06 $X=255 $Y=1195 $D=1
M142 7 CLK 4 VDD P12LL L=6E-08 W=5E-07 $X=275 $Y=7170 $D=1
M143 VDD 5 7 VDD P12LL L=6E-08 W=1E-06 $X=405 $Y=3025 $D=1
M144 VDD 4 6 VDD P12LL L=6E-08 W=4E-07 $X=405 $Y=9125 $D=1
M145 WLCKX 4 FCKX[3] VDD P12LL L=6E-08 W=1.25E-06 $X=405 $Y=12320 $D=1
M146 VDD 6 FCKX[3] VDD P12LL L=6E-08 W=1.25E-06 $X=405 $Y=15880 $D=1
M147 VDD 45 23 VDD P12LL L=6E-08 W=1E-06 $X=545 $Y=1195 $D=1
M148 4 CLK 7 VDD P12LL L=6E-08 W=5E-07 $X=545 $Y=7170 $D=1
M149 VDD 6 4 VDD P12LL L=3E-07 W=1.2E-07 $X=655 $Y=8285 $D=1
M150 7 10 VDD VDD P12LL L=6E-08 W=1E-06 $X=695 $Y=3025 $D=1
M151 6 4 VDD VDD P12LL L=6E-08 W=4E-07 $X=695 $Y=9125 $D=1
M152 FCKX[3] 4 WLCKX VDD P12LL L=6E-08 W=1.25E-06 $X=695 $Y=12320 $D=1
M153 FCKX[3] 6 VDD VDD P12LL L=6E-08 W=1.25E-06 $X=695 $Y=15880 $D=1
M154 7 CLK 4 VDD P12LL L=6E-08 W=5E-07 $X=825 $Y=7170 $D=1
M155 45 11 VDD VDD P12LL L=6E-08 W=1E-06 $X=835 $Y=1195 $D=1
M156 VDD 23 7 VDD P12LL L=6E-08 W=1E-06 $X=985 $Y=3025 $D=1
M157 VDD 4 6 VDD P12LL L=6E-08 W=4E-07 $X=985 $Y=9125 $D=1
M158 WLCKX 4 FCKX[3] VDD P12LL L=6E-08 W=1.25E-06 $X=985 $Y=12320 $D=1
M159 VDD 6 FCKX[3] VDD P12LL L=6E-08 W=1.25E-06 $X=985 $Y=15880 $D=1
M160 VDD 11 45 VDD P12LL L=6E-08 W=1E-06 $X=1125 $Y=1195 $D=1
M161 13 23 VDD VDD P12LL L=6E-08 W=1E-06 $X=1275 $Y=3025 $D=1
M162 12 14 VDD VDD P12LL L=6E-08 W=4E-07 $X=1275 $Y=9125 $D=1
M163 FCKX[2] 14 WLCKX VDD P12LL L=6E-08 W=1.25E-06 $X=1275 $Y=12320 $D=1
M164 FCKX[2] 12 VDD VDD P12LL L=6E-08 W=1.25E-06 $X=1275 $Y=15880 $D=1
M165 14 12 VDD VDD P12LL L=3E-07 W=1.2E-07 $X=1365 $Y=8285 $D=1
M166 14 CLK 13 VDD P12LL L=6E-08 W=5E-07 $X=1435 $Y=7170 $D=1
M167 VDD 10 13 VDD P12LL L=6E-08 W=1E-06 $X=1565 $Y=3025 $D=1
M168 VDD 14 12 VDD P12LL L=6E-08 W=4E-07 $X=1565 $Y=9125 $D=1
M169 WLCKX 14 FCKX[2] VDD P12LL L=6E-08 W=1.25E-06 $X=1565 $Y=12320 $D=1
M170 VDD 12 FCKX[2] VDD P12LL L=6E-08 W=1.25E-06 $X=1565 $Y=15880 $D=1
M171 13 CLK 14 VDD P12LL L=6E-08 W=5E-07 $X=1715 $Y=7170 $D=1
M172 77 A[2] 11 VDD P12LL L=6E-08 W=4E-07 $X=1755 $Y=1245 $D=1
M173 13 18 VDD VDD P12LL L=6E-08 W=1E-06 $X=1855 $Y=3025 $D=1
M174 12 14 VDD VDD P12LL L=6E-08 W=4E-07 $X=1855 $Y=9125 $D=1
M175 FCKX[2] 14 WLCKX VDD P12LL L=6E-08 W=1.25E-06 $X=1855 $Y=12320 $D=1
M176 FCKX[2] 12 VDD VDD P12LL L=6E-08 W=1.25E-06 $X=1855 $Y=15880 $D=1
M177 VDD VSS 77 VDD P12LL L=1E-07 W=4E-07 $X=1985 $Y=1245 $D=1
M178 14 CLK 13 VDD P12LL L=6E-08 W=5E-07 $X=1985 $Y=7170 $D=1
M179 VDD 14 12 VDD P12LL L=6E-08 W=4E-07 $X=2145 $Y=9125 $D=1
M180 WLCKX 14 FCKX[2] VDD P12LL L=6E-08 W=1.25E-06 $X=2145 $Y=12320 $D=1
M181 VDD 12 FCKX[2] VDD P12LL L=6E-08 W=1.25E-06 $X=2145 $Y=15880 $D=1
M182 21 19 VDD VDD P12LL L=6E-08 W=4E-07 $X=2435 $Y=9125 $D=1
M183 FCKX[0] 19 WLCKX VDD P12LL L=6E-08 W=1.25E-06 $X=2435 $Y=12320 $D=1
M184 FCKX[0] 21 VDD VDD P12LL L=6E-08 W=1.25E-06 $X=2435 $Y=15880 $D=1
M185 22 CLK 19 VDD P12LL L=6E-08 W=5E-07 $X=2595 $Y=7170 $D=1
M186 VDD 18 22 VDD P12LL L=6E-08 W=1E-06 $X=2725 $Y=3025 $D=1
M187 VDD 19 21 VDD P12LL L=6E-08 W=4E-07 $X=2725 $Y=9125 $D=1
M188 WLCKX 19 FCKX[0] VDD P12LL L=6E-08 W=1.25E-06 $X=2725 $Y=12320 $D=1